V5/metrics/angular_realism_v2_bus_metrics.csv
bus,mean_wrapped_error_deg,p95_wrapped_error_deg,mean_resultant_length_delta,mean_increment_wasserstein_deg,mean_wrap_event_rate_delta,mean_derivative_autocorr_delta,voltage_phase_consistency_delta_deg,current_phase_consistency_delta_deg
BUS39,88.38488986890313,170.80713761936806,0.9763691409145543,2.0397744311899033,0.000985221674876847,1.3249889504504238,120.03128480067927,119.6892238989858
BUS29,88.63571115363773,170.82902625502027,0.9810268377006928,2.034885089230975,0.0010064159013712416,1.4908078504849795,119.83095728061014,120.09715657777431
BUS10,88.35990312887354,170.76048204454062,0.976372374015479,2.065371346151698,0.000985221674876847,1.4861601072397448,120.24784954060635,119.89785164934807
BUS22,88.39224836116445,170.8438148117112,0.9763446252847315,2.04152291628423,0.0009848578111535148,1.4972141188468446,120.38221923136032,120.12789803037425
BUS19,88.3866463331101,170.71460646366825,0.9762519329183924,2.0413340266943263,0.0009844942160964802,1.4794703337540664,120.37456692659705,120.14680993449154
BUS2,88.37053016391347,170.80287227453843,0.9765446398539925,2.050948937208235,0.0009857072449482504,1.4694777114369877,120.20482598207855,119.86542414442312
BUS5,88.90891921246953,170.71574524432606,0.96039725828834,4.473809043429893,0.0031194844641464527,1.3430269390938407,118.90140247193882,119.9494743762063
BUS6,88.39116586152392,170.7782827499927,0.9761405680902713,2.041076996441686,0.0009828009828009828,1.488216612251095,120.14928699108282,119.82442577013661
